LTspice 24.1.6 for Windows
Circuit: H:\Downloads\rl series_hald work (1).net
Start Time: Mon Mar  2 14:33:07 2026
solver = Normal
Maximum thread count: 24
tnom = 27
temp = 27
method = trap
H:\Downloads\rl series_hald work (1).net(16): Limiting rise time to 0.00025.

V3 N002 0 PULSE(5 0 0 0 0 0.0025 0.005)
^^^^^^^^^^^^^^^^^^^^^^^^^^^^^^^^^^^^^^^
H:\Downloads\rl series_hald work (1).net(16): Limiting fall time to 0.00025.

V3 N002 0 PULSE(5 0 0 0 0 0.0025 0.005)
^^^^^^^^^^^^^^^^^^^^^^^^^^^^^^^^^^^^^^^
Direct Newton iteration for .op point succeeded.
.step lval=5e-05
.step lval=5.9997998398719e-05
.step lval=6.99959967974379e-05
.step lval=7.99939951961569e-05
.step lval=8.99919935948759e-05
.step lval=9.99899919935949e-05
.step lval=0.000109987990392314
.step lval=0.000119985988791033
.step lval=0.000129983987189752
.step lval=0.000139981985588471
.step lval=0.00014997998398719
.step lval=0.000159977982385909
.step lval=0.000169975980784628
.step lval=0.000179973979183347
.step lval=0.000189971977582066
.step lval=0.000199969975980785
.step lval=0.000209967974379504
.step lval=0.000219965972778223
.step lval=0.000229963971176942
.step lval=0.000239961969575661
.step lval=0.000249959967974379
.step lval=0.000259957966373098
.step lval=0.000269955964771817
.step lval=0.000279953963170536
.step lval=0.000289951961569255
.step lval=0.000299949959967974
.step lval=0.000309947958366693
.step lval=0.000319945956765412
.step lval=0.000329943955164131
.step lval=0.00033994195356285
.step lval=0.000349939951961569
.step lval=0.000359937950360288
.step lval=0.000369935948759007
.step lval=0.000379933947157726
.step lval=0.000389931945556445
.step lval=0.000399929943955164
.step lval=0.000409927942353883
.step lval=0.000419925940752602
.step lval=0.000429923939151321
.step lval=0.00043992193755004
.step lval=0.000449919935948759
.step lval=0.000459917934347478
.step lval=0.000469915932746197
.step lval=0.000479913931144916
.step lval=0.000489911929543635
.step lval=0.000499909927942354
.step lval=0.000509907926341073
.step lval=0.000519905924739792
.step lval=0.000529903923138511
.step lval=0.00053990192153723
.step lval=0.000549899919935949
.step lval=0.000559897918334668
.step lval=0.000569895916733387
.step lval=0.000579893915132106
.step lval=0.000589891913530825
.step lval=0.000599889911929544
.step lval=0.000609887910328263
.step lval=0.000619885908726982
.step lval=0.000629883907125701
.step lval=0.00063988190552442
.step lval=0.000649879903923139
.step lval=0.000659877902321858
.step lval=0.000669875900720576
.step lval=0.000679873899119296
.step lval=0.000689871897518014
.step lval=0.000699869895916733
.step lval=0.000709867894315452
.step lval=0.000719865892714171
.step lval=0.00072986389111289
.step lval=0.000739861889511609
.step lval=0.000749859887910328
.step lval=0.000759857886309047
.step lval=0.000769855884707766
.step lval=0.000779853883106485
.step lval=0.000789851881505204
.step lval=0.000799849879903923
.step lval=0.000809847878302642
.step lval=0.000819845876701361
.step lval=0.00082984387510008
.step lval=0.000839841873498799
.step lval=0.000849839871897518
.step lval=0.000859837870296237
.step lval=0.000869835868694956
.step lval=0.000879833867093675
.step lval=0.000889831865492394
.step lval=0.000899829863891113
.step lval=0.000909827862289832
.step lval=0.000919825860688551
.step lval=0.00092982385908727
.step lval=0.000939821857485989
.step lval=0.000949819855884708
.step lval=0.000959817854283427
.step lval=0.000969815852682146
.step lval=0.000979813851080865
.step lval=0.000989811849479584
.step lval=0.000999809847878303
.step lval=0.00100980784627702
.step lval=0.00101980584467574
.step lval=0.00102980384307446
.step lval=0.00103980184147318
.step lval=0.0010497998398719
.step lval=0.00105979783827062
.step lval=0.00106979583666934
.step lval=0.00107979383506805
.step lval=0.00108979183346677
.step lval=0.00109978983186549
.step lval=0.00110978783026421
.step lval=0.00111978582866293
.step lval=0.00112978382706165
.step lval=0.00113978182546037
.step lval=0.00114977982385909
.step lval=0.00115977782225781
.step lval=0.00116977582065653
.step lval=0.00117977381905524
.step lval=0.00118977181745396
.step lval=0.00119976981585268
.step lval=0.0012097678142514
.step lval=0.00121976581265012
.step lval=0.00122976381104884
.step lval=0.00123976180944756
.step lval=0.00124975980784628
.step lval=0.001259757806245
.step lval=0.00126975580464371
.step lval=0.00127975380304243
.step lval=0.00128975180144115
.step lval=0.00129974979983987
.step lval=0.00130974779823859
.step lval=0.00131974579663731
.step lval=0.00132974379503603
.step lval=0.00133974179343475
.step lval=0.00134973979183347
.step lval=0.00135973779023219
.step lval=0.0013697357886309
.step lval=0.00137973378702962
.step lval=0.00138973178542834
.step lval=0.00139972978382706
.step lval=0.00140972778222578
.step lval=0.0014197257806245
.step lval=0.00142972377902322
.step lval=0.00143972177742194
.step lval=0.00144971977582066
.step lval=0.00145971777421938
.step lval=0.00146971577261809
.step lval=0.00147971377101681
.step lval=0.00148971176941553
.step lval=0.00149970976781425
.step lval=0.00150970776621297
.step lval=0.00151970576461169
.step lval=0.00152970376301041
.step lval=0.00153970176140913
.step lval=0.00154969975980785
.step lval=0.00155969775820657
.step lval=0.00156969575660528
.step lval=0.001579693755004
.step lval=0.00158969175340272
.step lval=0.00159968975180144
.step lval=0.00160968775020016
.step lval=0.00161968574859888
.step lval=0.0016296837469976
.step lval=0.00163968174539632
.step lval=0.00164967974379504
.step lval=0.00165967774219375
.step lval=0.00166967574059247
.step lval=0.00167967373899119
.step lval=0.00168967173738991
.step lval=0.00169966973578863
.step lval=0.00170966773418735
.step lval=0.00171966573258607
.step lval=0.00172966373098479
.step lval=0.00173966172938351
.step lval=0.00174965972778223
.step lval=0.00175965772618094
.step lval=0.00176965572457966
.step lval=0.00177965372297838
.step lval=0.0017896517213771
.step lval=0.00179964971977582
.step lval=0.00180964771817454
.step lval=0.00181964571657326
.step lval=0.00182964371497198
.step lval=0.0018396417133707
.step lval=0.00184963971176942
.step lval=0.00185963771016813
.step lval=0.00186963570856685
.step lval=0.00187963370696557
.step lval=0.00188963170536429
.step lval=0.00189962970376301
.step lval=0.00190962770216173
.step lval=0.00191962570056045
.step lval=0.00192962369895917
.step lval=0.00193962169735789
.step lval=0.00194961969575661
.step lval=0.00195961769415532
.step lval=0.00196961569255404
.step lval=0.00197961369095276
.step lval=0.00198961168935148
.step lval=0.0019996096877502
.step lval=0.00200960768614892
.step lval=0.00201960568454764
.step lval=0.00202960368294636
.step lval=0.00203960168134508
.step lval=0.0020495996797438
.step lval=0.00205959767814251
.step lval=0.00206959567654123
.step lval=0.00207959367493995
.step lval=0.00208959167333867
.step lval=0.00209958967173739
.step lval=0.00210958767013611
.step lval=0.00211958566853483
.step lval=0.00212958366693355
.step lval=0.00213958166533227
.step lval=0.00214957966373099
.step lval=0.0021595776621297
.step lval=0.00216957566052842
.step lval=0.00217957365892714
.step lval=0.00218957165732586
.step lval=0.00219956965572458
.step lval=0.0022095676541233
.step lval=0.00221956565252202
.step lval=0.00222956365092074
.step lval=0.00223956164931946
.step lval=0.00224955964771817
.step lval=0.00225955764611689
.step lval=0.00226955564451561
.step lval=0.00227955364291433
.step lval=0.00228955164131305
.step lval=0.00229954963971177
.step lval=0.00230954763811049
.step lval=0.00231954563650921
.step lval=0.00232954363490793
.step lval=0.00233954163330665
.step lval=0.00234953963170536
.step lval=0.00235953763010408
.step lval=0.0023695356285028
.step lval=0.00237953362690152
.step lval=0.00238953162530024
.step lval=0.00239952962369896
.step lval=0.00240952762209768
.step lval=0.0024195256204964
.step lval=0.00242952361889512
.step lval=0.00243952161729384
.step lval=0.00244951961569255
.step lval=0.00245951761409127
.step lval=0.00246951561248999
.step lval=0.00247951361088871
.step lval=0.00248951160928743
.step lval=0.00249950960768615
.step lval=0.00250950760608487
.step lval=0.00251950560448359
.step lval=0.00252950360288231
.step lval=0.00253950160128102
.step lval=0.00254949959967974
.step lval=0.00255949759807846
.step lval=0.00256949559647718
.step lval=0.0025794935948759
.step lval=0.00258949159327462
.step lval=0.00259948959167334
.step lval=0.00260948759007206
.step lval=0.00261948558847078
.step lval=0.0026294835868695
.step lval=0.00263948158526821
.step lval=0.00264947958366693
.step lval=0.00265947758206565
.step lval=0.00266947558046437
.step lval=0.00267947357886309
.step lval=0.00268947157726181
.step lval=0.00269946957566053
.step lval=0.00270946757405925
.step lval=0.00271946557245797
.step lval=0.00272946357085669
.step lval=0.0027394615692554
.step lval=0.00274945956765412
.step lval=0.00275945756605284
.step lval=0.00276945556445156
.step lval=0.00277945356285028
.step lval=0.002789451561249
.step lval=0.00279944955964772
.step lval=0.00280944755804644
.step lval=0.00281944555644516
.step lval=0.00282944355484388
.step lval=0.00283944155324259
.step lval=0.00284943955164131
.step lval=0.00285943755004003
.step lval=0.00286943554843875
.step lval=0.00287943354683747

Simulation stopped by user.
Total elapsed time: 1345.184 seconds.

Files loaded:
H:\Downloads\rl series_hald work (1).net
C:\Users\c4025593\AppData\Local\LTspice\lib\cmp\standard.dio
C:\Users\c4025593\AppData\Local\LTspice\lib\cmp\standard.mos

